/*--------------------------------*- C++ -*----------------------------------*\
  =========                 |
  \\      /  F ield         | OpenFOAM: The Open Source CFD Toolbox
   \\    /   O peration     | Website:  https://openfoam.org
    \\  /    A nd           | Version:  6
     \\/     M anipulation  |
\*---------------------------------------------------------------------------*/
FoamFile
{
    version     2.0;
    format      ascii;
    class       dictionary;
    location    "constant";
    object      TranCoeff;
}
// * * * * * * * * * * * * * * * * * * * * * * * * * * * * * * * * * * * * * //

species
(
    H2
    H
    O
    O2
    OH
    H2O
    HO2
    H2O2
    C
    CH
    CH2
    CH2(S)
    CH3
    CH4
    CO
    CO2
    HCO
    CH2O
    CH2OH
    CH3O
    CH3OH
    C2H
    C2H2
    C2H3
    C2H4
    C2H5
    C2H6
    HCCO
    CH2CO
    HCCOH
    N
    NH
    NH2
    NH3
    NNH
    NO
    NO2
    N2O
    HNO
    CN
    HCN
    H2CN
    HCNN
    HCNO
    HOCN
    HNCO
    NCO
    N2
    AR
    C3H7
    C3H8
    CH2CHO
    CH3CHO
);

H2
{
    fittingTranCoeff
    {
        muCoeffs    (-16.1416 1.00298 -0.0500972 0.00232852);
        kappaCoeffs    (-1.53184 -0.781713 0.159653 -0.00463867);
        DijCoeffs    (
                        (-9.21034 -6.44736e-26 9.25847e-27 -4.40439e-28)
                        (-20.6161 2.77531 -0.150119 0.00670131)
                        (-20.1087 2.28781 -0.0847962 0.00377877)
                        (-21.0272 2.54556 -0.119912 0.00537589)
                        (-20.112 2.28781 -0.0847962 0.00377877)
                        (-26.2965 4.60674 -0.381662 0.016488)
                        (-21.0281 2.54556 -0.119912 0.00537589)
                        (-21.029 2.54556 -0.119912 0.00537589)
                        (-19.9804 2.16777 -0.0679648 0.0029913)
                        (-20.096 2.28781 -0.0847962 0.00377877)
                        (-21.6902 2.77117 -0.149596 0.00667932)
                        (-21.6902 2.77117 -0.149596 0.00667932)
                        (-21.6944 2.77117 -0.149596 0.00667932)
                        (-21.6509 2.75985 -0.148157 0.00661834)
                        (-20.8855 2.46923 -0.10967 0.00491725)
                        (-22.9174 3.21419 -0.206412 0.00911038)
                        (-25.1812 4.08261 -0.317423 0.0138562)
                        (-25.1823 4.08261 -0.317423 0.0138562)
                        (-24.9154 3.96996 -0.30289 0.013228)
                        (-24.9154 3.96996 -0.30289 0.013228)
                        (-25.071 4.03625 -0.311504 0.0136029)
                        (-22.6057 3.06749 -0.187587 0.00830375)
                        (-22.6071 3.06749 -0.187587 0.00830375)
                        (-22.6084 3.06749 -0.187587 0.00830375)
                        (-23.3449 3.35422 -0.224214 0.00986564)
                        (-23.1429 3.2441 -0.210192 0.00926979)
                        (-23.144 3.2441 -0.210192 0.00926979)
                        (-21.3762 2.79786 -0.153002 0.00682418)
                        (-24.7724 3.88158 -0.291484 0.0127348)
                        (-24.7724 3.88158 -0.291484 0.0127348)
                        (-19.9907 2.16777 -0.0679648 0.0029913)
                        (-20.0694 2.28781 -0.0847962 0.00377877)
                        (-20.0731 2.28781 -0.0847962 0.00377877)
                        (-25.3364 4.22796 -0.335754 0.0146307)
                        (-20.1791 2.16777 -0.0679648 0.0029913)
                        (-20.8652 2.46383 -0.10894 0.00488439)
                        (-22.333 3.02587 -0.182223 0.00807301)
                        (-22.8123 3.16802 -0.200516 0.00885906)
                        (-21.2199 2.61625 -0.129361 0.00579736)
                        (-20.3187 2.21927 -0.0751984 0.0033303)
                        (-25.6605 4.25471 -0.339034 0.0147652)
                        (-25.6618 4.25471 -0.339034 0.0147652)
                        (-21.3762 2.79786 -0.153002 0.00682418)
                        (-22.8118 3.16802 -0.200516 0.00885906)
                        (-22.8118 3.16802 -0.200516 0.00885906)
                        (-22.8118 3.16802 -0.200516 0.00885906)
                        (-22.8112 3.16802 -0.200516 0.00885906)
                        (-20.8629 2.46383 -0.10894 0.00488439)
                        (-21.4922 2.7361 -0.145105 0.0064876)
                        (-23.4672 3.29257 -0.216247 0.00952188)
                        (-23.4677 3.29257 -0.216247 0.00952188)
                        (-24.773 3.88158 -0.291484 0.0127348)
                        (-24.7735 3.88158 -0.291484 0.0127348)
                     );
    }
};

H
{
    fittingTranCoeff
    {
        muCoeffs    (-22.6578 3.63174 -0.395128 0.0174374);
        kappaCoeffs    (-12.3182 3.63174 -0.395128 0.0174374);
        DijCoeffs    (
                        (-20.6161 2.77531 -0.150119 0.00670131)
                        (-9.21034 -6.44736e-26 9.25847e-27 -4.40439e-28)
                        (-22.5257 3.44613 -0.235979 0.010369)
                        (-23.757 3.79558 -0.28044 0.01226)
                        (-22.5274 3.44613 -0.235979 0.010369)
                        (-28.8579 5.64687 -0.495159 0.0205558)
                        (-23.7574 3.79558 -0.28044 0.01226)
                        (-23.7579 3.79558 -0.28044 0.01226)
                        (-22.388 3.31728 -0.219434 0.0096591)
                        (-22.5189 3.44613 -0.235979 0.010369)
                        (-24.9743 4.2134 -0.333945 0.0145555)
                        (-24.9743 4.2134 -0.333945 0.0145555)
                        (-24.9766 4.2134 -0.333945 0.0145555)
                        (-24.8954 4.18976 -0.330982 0.0144312)
                        (-23.4836 3.66772 -0.264005 0.0115537)
                        (-26.7804 4.84661 -0.410251 0.0176253)
                        (-28.9569 5.57189 -0.489586 0.020477)
                        (-28.9575 5.57189 -0.489586 0.020477)
                        (-28.5143 5.43044 -0.475863 0.0200651)
                        (-28.5143 5.43044 -0.475863 0.0200651)
                        (-28.8938 5.55049 -0.487709 0.0204308)
                        (-26.3482 4.66002 -0.388102 0.0167483)
                        (-26.349 4.66002 -0.388102 0.0167483)
                        (-26.3497 4.66002 -0.388102 0.0167483)
                        (-27.367 5.0287 -0.431901 0.0184853)
                        (-27.0862 4.8943 -0.416036 0.0178601)
                        (-27.0868 4.8943 -0.416036 0.0178601)
                        (-24.627 4.26101 -0.339797 0.0147961)
                        (-28.7134 5.45747 -0.478126 0.0201132)
                        (-28.7134 5.45747 -0.478126 0.0201132)
                        (-22.3935 3.31728 -0.219434 0.0096591)
                        (-22.4816 3.44613 -0.235979 0.010369)
                        (-22.4836 3.44613 -0.235979 0.010369)
                        (-28.6111 5.54948 -0.487625 0.020429)
                        (-22.59 3.31728 -0.219434 0.0096591)
                        (-23.458 3.66173 -0.263264 0.011523)
                        (-25.9958 4.60482 -0.381426 0.0164784)
                        (-26.6403 4.791 -0.40376 0.0173733)
                        (-24.0769 3.91128 -0.295303 0.0128993)
                        (-22.7632 3.37579 -0.226978 0.009984)
                        (-29.257 5.64571 -0.495211 0.020566)
                        (-29.2577 5.64571 -0.495211 0.020566)
                        (-24.627 4.26101 -0.339797 0.0147961)
                        (-26.64 4.791 -0.40376 0.0173733)
                        (-26.64 4.791 -0.40376 0.0173733)
                        (-26.64 4.791 -0.40376 0.0173733)
                        (-26.6398 4.791 -0.40376 0.0173733)
                        (-23.4568 3.66173 -0.263264 0.011523)
                        (-24.6385 4.14346 -0.325154 0.0141854)
                        (-27.5101 4.96982 -0.425089 0.0182231)
                        (-27.5104 4.96982 -0.425089 0.0182231)
                        (-28.7137 5.45747 -0.478126 0.0201132)
                        (-28.714 5.45747 -0.478126 0.0201132)
                     );
    }
};

O
{
    fittingTranCoeff
    {
        muCoeffs    (-17.3405 1.90275 -0.170195 0.00767127);
        kappaCoeffs    (-9.7655 1.90275 -0.170195 0.00767127);
        DijCoeffs    (
                        (-20.1087 2.28781 -0.0847962 0.00377877)
                        (-22.5257 3.44613 -0.235979 0.010369)
                        (-9.21034 -6.44736e-26 9.25847e-27 -4.40439e-28)
                        (-23.4324 3.14265 -0.197273 0.00872065)
                        (-22.376 2.88806 -0.164634 0.00732455)
                        (-28.5983 5.15624 -0.446304 0.0190235)
                        (-23.4375 3.14265 -0.197273 0.00872065)
                        (-23.4424 3.14265 -0.197273 0.00872065)
                        (-22.2362 2.79951 -0.153215 0.00683343)
                        (-22.3068 2.88806 -0.164634 0.00732455)
                        (-24.1588 3.43831 -0.234974 0.0103258)
                        (-24.1588 3.43831 -0.234974 0.0103258)
                        (-24.177 3.43831 -0.234974 0.0103258)
                        (-24.1223 3.41786 -0.232344 0.0102127)
                        (-23.2369 3.05525 -0.185999 0.00823493)
                        (-26.2117 4.1255 -0.322885 0.0140893)
                        (-28.5803 5.00511 -0.429209 0.0183834)
                        (-28.5863 5.00511 -0.429209 0.0183834)
                        (-27.9729 4.7785 -0.402268 0.0173139)
                        (-27.9729 4.7785 -0.402268 0.0173139)
                        (-28.4925 4.9653 -0.424559 0.0182024)
                        (-25.6072 3.8945 -0.293147 0.0128065)
                        (-25.6148 3.8945 -0.293147 0.0128065)
                        (-25.6219 3.8945 -0.293147 0.0128065)
                        (-26.6664 4.29233 -0.34351 0.0149425)
                        (-26.4233 4.16842 -0.328291 0.0143174)
                        (-26.4293 4.16842 -0.328291 0.0143174)
                        (-24.0536 3.48351 -0.240754 0.0105729)
                        (-28.2513 4.82866 -0.408117 0.0175407)
                        (-28.2513 4.82866 -0.408117 0.0175407)
                        (-22.2787 2.79951 -0.153215 0.00683343)
                        (-22.3082 2.88806 -0.164634 0.00732455)
                        (-22.3247 2.88806 -0.164634 0.00732455)
                        (-28.123 4.9632 -0.424311 0.0181926)
                        (-22.5989 2.79951 -0.153215 0.00683343)
                        (-23.2255 3.04984 -0.185302 0.00820502)
                        (-25.3561 3.8322 -0.285131 0.0124611)
                        (-26.0513 4.05852 -0.314365 0.0137261)
                        (-23.6483 3.22059 -0.207224 0.00914481)
                        (-22.7063 2.8409 -0.158606 0.00706765)
                        (-29.015 5.15005 -0.445614 0.0189981)
                        (-29.0217 5.15005 -0.445614 0.0189981)
                        (-24.0537 3.48351 -0.240754 0.0105729)
                        (-26.0483 4.05852 -0.314365 0.0137261)
                        (-26.0483 4.05852 -0.314365 0.0137261)
                        (-26.0483 4.05852 -0.314365 0.0137261)
                        (-26.0451 4.05852 -0.314365 0.0137261)
                        (-23.2133 3.04984 -0.185302 0.00820502)
                        (-24.0664 3.38037 -0.227565 0.0100091)
                        (-26.8655 4.24024 -0.33727 0.0146933)
                        (-26.8686 4.24024 -0.33727 0.0146933)
                        (-28.2545 4.82866 -0.408117 0.0175407)
                        (-28.2576 4.82866 -0.408117 0.0175407)
                     );
    }
};

O2
{
    fittingTranCoeff
    {
        muCoeffs    (-19.3405 2.62765 -0.265133 0.0118167);
        kappaCoeffs    (-13.8944 3.07851 -0.297333 0.0127535);
        DijCoeffs    (
                        (-21.0272 2.54556 -0.119912 0.00537589)
                        (-23.757 3.79558 -0.28044 0.01226)
                        (-23.4324 3.14265 -0.197273 0.00872065)
                        (-9.21034 -6.44736e-26 9.25847e-27 -4.40439e-28)
                        (-23.4526 3.14265 -0.197273 0.00872065)
                        (-30.453 5.60295 -0.492151 0.0205307)
                        (-24.6597 3.43976 -0.23516 0.0103338)
                        (-24.667 3.43976 -0.23516 0.0103338)
                        (-23.2112 3.03393 -0.183255 0.00811716)
                        (-23.3614 3.14265 -0.197273 0.00872065)
                        (-25.4323 3.78547 -0.279134 0.0122036)
                        (-25.4323 3.78547 -0.279134 0.0122036)
                        (-25.4562 3.78547 -0.279134 0.0122036)
                        (-25.3927 3.75885 -0.275697 0.0120551)
                        (-24.4018 3.33866 -0.222199 0.00977854)
                        (-27.6164 4.47195 -0.36524 0.0158195)
                        (-29.9678 5.33101 -0.465968 0.0197562)
                        (-29.9767 5.33101 -0.465968 0.0197562)
                        (-29.6802 5.22212 -0.453904 0.0193152)
                        (-29.6802 5.22212 -0.453904 0.0193152)
                        (-29.9103 5.30213 -0.46297 0.0196562)
                        (-27.0596 4.29165 -0.343431 0.0149395)
                        (-27.0706 4.29165 -0.343431 0.0149395)
                        (-27.081 4.29165 -0.343431 0.0149395)
                        (-28.0778 4.65431 -0.38742 0.0167211)
                        (-27.7699 4.50938 -0.369684 0.0159952)
                        (-27.7788 4.50938 -0.369684 0.0159952)
                        (-25.4924 3.84135 -0.286303 0.0125114)
                        (-29.7248 5.18789 -0.450067 0.0191731)
                        (-29.7248 5.18789 -0.450067 0.0191731)
                        (-23.2659 3.03393 -0.183255 0.00811716)
                        (-23.3785 3.14265 -0.197273 0.00872065)
                        (-23.4004 3.14265 -0.197273 0.00872065)
                        (-29.8174 5.39538 -0.472693 0.0199831)
                        (-23.6317 3.03393 -0.183255 0.00811716)
                        (-24.3927 3.3315 -0.221273 0.00973849)
                        (-26.9153 4.24751 -0.338159 0.0147297)
                        (-27.4816 4.41864 -0.358877 0.0155666)
                        (-24.9145 3.53723 -0.247656 0.0108694)
                        (-23.7445 3.08127 -0.189366 0.00838045)
                        (-30.311 5.4355 -0.476208 0.0200675)
                        (-30.3208 5.4355 -0.476208 0.0200675)
                        (-25.4924 3.84135 -0.286303 0.0125114)
                        (-27.4768 4.41864 -0.358877 0.0155666)
                        (-27.4768 4.41864 -0.358877 0.0155666)
                        (-27.4768 4.41864 -0.358877 0.0155666)
                        (-27.4717 4.41864 -0.358877 0.0155666)
                        (-24.3747 3.3315 -0.221273 0.00973849)
                        (-25.3896 3.7065 -0.268936 0.0117631)
                        (-28.2505 4.58838 -0.379408 0.0163954)
                        (-28.2554 4.58838 -0.379408 0.0163954)
                        (-29.7299 5.18789 -0.450067 0.0191731)
                        (-29.7348 5.18789 -0.450067 0.0191731)
                     );
    }
};

OH
{
    fittingTranCoeff
    {
        muCoeffs    (-17.3099 1.90275 -0.170195 0.00767127);
        kappaCoeffs    (3.28832 -3.51461 0.571515 -0.0250431);
        DijCoeffs    (
                        (-20.112 2.28781 -0.0847962 0.00377877)
                        (-22.5274 3.44613 -0.235979 0.010369)
                        (-22.376 2.88806 -0.164634 0.00732455)
                        (-23.4526 3.14265 -0.197273 0.00872065)
                        (-9.21034 -6.44736e-26 9.25847e-27 -4.40439e-28)
                        (-28.6142 5.15624 -0.446304 0.0190235)
                        (-23.4579 3.14265 -0.197273 0.00872065)
                        (-23.463 3.14265 -0.197273 0.00872065)
                        (-22.2491 2.79951 -0.153215 0.00683343)
                        (-22.3203 2.88806 -0.164634 0.00732455)
                        (-24.1729 3.43831 -0.234974 0.0103258)
                        (-24.1729 3.43831 -0.234974 0.0103258)
                        (-24.1916 3.43831 -0.234974 0.0103258)
                        (-24.1374 3.41786 -0.232344 0.0102127)
                        (-23.2561 3.05525 -0.185999 0.00823493)
                        (-26.2339 4.1255 -0.322885 0.0140893)
                        (-28.5998 5.00511 -0.429209 0.0183834)
                        (-28.606 5.00511 -0.429209 0.0183834)
                        (-27.9928 4.7785 -0.402268 0.0173139)
                        (-27.9928 4.7785 -0.402268 0.0173139)
                        (-28.5127 4.9653 -0.424559 0.0182024)
                        (-25.6256 3.8945 -0.293147 0.0128065)
                        (-25.6335 3.8945 -0.293147 0.0128065)
                        (-25.6409 3.8945 -0.293147 0.0128065)
                        (-26.6857 4.29233 -0.34351 0.0149425)
                        (-26.4428 4.16842 -0.328291 0.0143174)
                        (-26.449 4.16842 -0.328291 0.0143174)
                        (-24.0754 3.48351 -0.240754 0.0105729)
                        (-28.2732 4.82866 -0.408117 0.0175407)
                        (-28.2732 4.82866 -0.408117 0.0175407)
                        (-22.2927 2.79951 -0.153215 0.00683343)
                        (-22.3227 2.88806 -0.164634 0.00732455)
                        (-22.3397 2.88806 -0.164634 0.00732455)
                        (-28.1385 4.9632 -0.424311 0.0181926)
                        (-22.6184 2.79951 -0.153215 0.00683343)
                        (-23.2452 3.04984 -0.185302 0.00820502)
                        (-25.3786 3.8322 -0.285131 0.0124611)
                        (-26.0736 4.05852 -0.314365 0.0137261)
                        (-23.6683 3.22059 -0.207224 0.00914481)
                        (-22.725 2.8409 -0.158606 0.00706765)
                        (-29.0339 5.15005 -0.445614 0.0189981)
                        (-29.0409 5.15005 -0.445614 0.0189981)
                        (-24.0754 3.48351 -0.240754 0.0105729)
                        (-26.0704 4.05852 -0.314365 0.0137261)
                        (-26.0704 4.05852 -0.314365 0.0137261)
                        (-26.0704 4.05852 -0.314365 0.0137261)
                        (-26.067 4.05852 -0.314365 0.0137261)
                        (-23.2325 3.04984 -0.185302 0.00820502)
                        (-24.0881 3.38037 -0.227565 0.0100091)
                        (-26.8876 4.24024 -0.33727 0.0146933)
                        (-26.8908 4.24024 -0.33727 0.0146933)
                        (-28.2766 4.82866 -0.408117 0.0175407)
                        (-28.2798 4.82866 -0.408117 0.0175407)
                     );
    }
};

H2O
{
    fittingTranCoeff
    {
        muCoeffs    (-12.9653 -1.33484 0.41556 -0.0238812);
        kappaCoeffs    (12.2672 -9.14258 1.55383 -0.077075);
        DijCoeffs    (
                        (-26.2965 4.60674 -0.381662 0.016488)
                        (-28.8579 5.64687 -0.495159 0.0205558)
                        (-28.5983 5.15624 -0.446304 0.0190235)
                        (-30.453 5.60295 -0.492151 0.0205307)
                        (-28.6142 5.15624 -0.446304 0.0190235)
                        (-9.21034 -6.44736e-26 9.25847e-27 -4.40439e-28)
                        (-29.8961 5.43852 -0.476428 0.02007)
                        (-29.9013 5.43852 -0.476428 0.02007)
                        (-28.3404 5.03263 -0.432346 0.018502)
                        (-28.5411 5.15624 -0.446304 0.0190235)
                        (-30.5429 5.64553 -0.49522 0.0205676)
                        (-30.5429 5.64553 -0.49522 0.0205676)
                        (-30.5621 5.64553 -0.49522 0.0205676)
                        (-30.6998 5.62052 -0.483426 0.0197159)
                        (-30.3209 5.55695 -0.488249 0.0204425)
                        (-30.1572 5.09926 -0.39041 0.0146768)
                        (-27.215 3.68769 -0.172264 0.0038615)
                        (-27.2215 3.68769 -0.172264 0.0038615)
                        (-25.9944 3.08797 -0.0832684 -0.000357479)
                        (-25.9944 3.08797 -0.0832684 -0.000357479)
                        (-27.4832 3.80118 -0.189267 0.00468514)
                        (-30.8558 5.53329 -0.464948 0.0186294)
                        (-30.864 5.53329 -0.464948 0.0186294)
                        (-30.8717 5.53329 -0.464948 0.0186294)
                        (-30.2784 5.17263 -0.402327 0.0152877)
                        (-30.6519 5.33121 -0.428931 0.0166791)
                        (-30.6583 5.33121 -0.428931 0.0166791)
                        (-30.363 5.64857 -0.494147 0.020463)
                        (-28.2586 4.1049 -0.235392 0.00694178)
                        (-28.2586 4.1049 -0.235392 0.00694178)
                        (-28.3851 5.03263 -0.432346 0.018502)
                        (-28.5435 5.15624 -0.446304 0.0190235)
                        (-30.3177 5.65185 -0.49107 0.0201902)
                        (-24.097 2.33891 0.0309755 -0.00591596)
                        (-28.7197 5.03263 -0.432346 0.018502)
                        (-30.2744 5.5433 -0.487098 0.020417)
                        (-30.8031 5.56354 -0.470975 0.0189743)
                        (-30.7283 5.42874 -0.445997 0.017594)
                        (-30.1462 5.51583 -0.484407 0.0203348)
                        (-28.8878 5.09108 -0.439126 0.0187639)
                        (-26.2054 3.21106 -0.101286 0.000440316)
                        (-26.2126 3.21106 -0.101286 0.000440316)
                        (-30.363 5.64857 -0.494147 0.020463)
                        (-30.725 5.42874 -0.445997 0.017594)
                        (-30.725 5.42874 -0.445997 0.017594)
                        (-30.725 5.42874 -0.445997 0.017594)
                        (-30.7215 5.42874 -0.445997 0.017594)
                        (-30.2612 5.5433 -0.487098 0.020417)
                        (-30.5204 5.62375 -0.49407 0.0205836)
                        (-30.7859 5.2569 -0.416233 0.016008)
                        (-30.7893 5.2569 -0.416233 0.016008)
                        (-28.2621 4.1049 -0.235392 0.00694178)
                        (-28.2655 4.1049 -0.235392 0.00694178)
                     );
    }
};

HO2
{
    fittingTranCoeff
    {
        muCoeffs    (-19.325 2.62765 -0.265133 0.0118167);
        kappaCoeffs    (-13.0051 2.4949 -0.185183 0.00683561);
        DijCoeffs    (
                        (-21.0281 2.54556 -0.119912 0.00537589)
                        (-23.7574 3.79558 -0.28044 0.01226)
                        (-23.4375 3.14265 -0.197273 0.00872065)
                        (-24.6597 3.43976 -0.23516 0.0103338)
                        (-23.4579 3.14265 -0.197273 0.00872065)
                        (-29.8961 5.43852 -0.476428 0.02007)
                        (-9.21034 -6.44736e-26 9.25847e-27 -4.40439e-28)
                        (-24.6749 3.43976 -0.23516 0.0103338)
                        (-23.2154 3.03393 -0.183255 0.00811716)
                        (-23.3658 3.14265 -0.197273 0.00872065)
                        (-25.437 3.78547 -0.279134 0.0122036)
                        (-25.437 3.78547 -0.279134 0.0122036)
                        (-25.4611 3.78547 -0.279134 0.0122036)
                        (-25.3978 3.75885 -0.275697 0.0120551)
                        (-24.409 3.33866 -0.222199 0.00977854)
                        (-27.6253 4.47195 -0.36524 0.0158195)
                        (-29.9751 5.33101 -0.465968 0.0197562)
                        (-29.9841 5.33101 -0.465968 0.0197562)
                        (-29.4255 5.13418 -0.443884 0.0189364)
                        (-29.4255 5.13418 -0.443884 0.0189364)
                        (-29.918 5.30213 -0.46297 0.0196562)
                        (-27.0664 4.29165 -0.343431 0.0149395)
                        (-27.0775 4.29165 -0.343431 0.0149395)
                        (-27.088 4.29165 -0.343431 0.0149395)
                        (-28.085 4.65431 -0.38742 0.0167211)
                        (-27.7772 4.50938 -0.369684 0.0159952)
                        (-27.7862 4.50938 -0.369684 0.0159952)
                        (-25.5011 3.84135 -0.286303 0.0125114)
                        (-29.7336 5.18789 -0.450067 0.0191731)
                        (-29.7336 5.18789 -0.450067 0.0191731)
                        (-23.2706 3.03393 -0.183255 0.00811716)
                        (-23.3834 3.14265 -0.197273 0.00872065)
                        (-23.4055 3.14265 -0.197273 0.00872065)
                        (-29.5178 5.30037 -0.462776 0.019649)
                        (-23.639 3.03393 -0.183255 0.00811716)
                        (-24.4002 3.3315 -0.221273 0.00973849)
                        (-26.9244 4.24751 -0.338159 0.0147297)
                        (-27.4905 4.41864 -0.358877 0.0155666)
                        (-24.9221 3.53723 -0.247656 0.0108694)
                        (-23.7514 3.08127 -0.189366 0.00838045)
                        (-30.318 5.4355 -0.476208 0.0200675)
                        (-30.328 5.4355 -0.476208 0.0200675)
                        (-25.5011 3.84135 -0.286303 0.0125114)
                        (-27.4857 4.41864 -0.358877 0.0155666)
                        (-27.4857 4.41864 -0.358877 0.0155666)
                        (-27.4857 4.41864 -0.358877 0.0155666)
                        (-27.4805 4.41864 -0.358877 0.0155666)
                        (-24.3819 3.3315 -0.221273 0.00973849)
                        (-25.3982 3.7065 -0.268936 0.0117631)
                        (-28.2593 4.58838 -0.379408 0.0163954)
                        (-28.2643 4.58838 -0.379408 0.0163954)
                        (-29.7387 5.18789 -0.450067 0.0191731)
                        (-29.7437 5.18789 -0.450067 0.0191731)
                     );
    }
};

H2O2
{
    fittingTranCoeff
    {
        muCoeffs    (-19.3099 2.62765 -0.265133 0.0118167);
        kappaCoeffs    (-10.7913 1.38415 0.00946535 -0.00396212);
        DijCoeffs    (
                        (-21.029 2.54556 -0.119912 0.00537589)
                        (-23.7579 3.79558 -0.28044 0.01226)
                        (-23.4424 3.14265 -0.197273 0.00872065)
                        (-24.667 3.43976 -0.23516 0.0103338)
                        (-23.463 3.14265 -0.197273 0.00872065)
                        (-29.9013 5.43852 -0.476428 0.02007)
                        (-24.6749 3.43976 -0.23516 0.0103338)
                        (-9.21034 -6.44736e-26 9.25847e-27 -4.40439e-28)
                        (-23.2194 3.03393 -0.183255 0.00811716)
                        (-23.37 3.14265 -0.197273 0.00872065)
                        (-25.4414 3.78547 -0.279134 0.0122036)
                        (-25.4414 3.78547 -0.279134 0.0122036)
                        (-25.4657 3.78547 -0.279134 0.0122036)
                        (-25.4027 3.75885 -0.275697 0.0120551)
                        (-24.4158 3.33866 -0.222199 0.00977854)
                        (-27.6338 4.47195 -0.36524 0.0158195)
                        (-29.9821 5.33101 -0.465968 0.0197562)
                        (-29.9912 5.33101 -0.465968 0.0197562)
                        (-29.4328 5.13418 -0.443884 0.0189364)
                        (-29.4328 5.13418 -0.443884 0.0189364)
                        (-29.9253 5.30213 -0.46297 0.0196562)
                        (-27.0728 4.29165 -0.343431 0.0149395)
                        (-27.0841 4.29165 -0.343431 0.0149395)
                        (-27.0948 4.29165 -0.343431 0.0149395)
                        (-28.0918 4.65431 -0.38742 0.0167211)
                        (-27.7842 4.50938 -0.369684 0.0159952)
                        (-27.7933 4.50938 -0.369684 0.0159952)
                        (-25.5093 3.84135 -0.286303 0.0125114)
                        (-29.7419 5.18789 -0.450067 0.0191731)
                        (-29.7419 5.18789 -0.450067 0.0191731)
                        (-23.275 3.03393 -0.183255 0.00811716)
                        (-23.3881 3.14265 -0.197273 0.00872065)
                        (-23.4104 3.14265 -0.197273 0.00872065)
                        (-29.5228 5.30037 -0.462776 0.019649)
                        (-23.646 3.03393 -0.183255 0.00811716)
                        (-24.4073 3.3315 -0.221273 0.00973849)
                        (-26.9331 4.24751 -0.338159 0.0147297)
                        (-27.4991 4.41864 -0.358877 0.0155666)
                        (-24.9294 3.53723 -0.247656 0.0108694)
                        (-23.758 3.08127 -0.189366 0.00838045)
                        (-30.3247 5.4355 -0.476208 0.0200675)
                        (-30.3349 5.4355 -0.476208 0.0200675)
                        (-25.5093 3.84135 -0.286303 0.0125114)
                        (-27.4941 4.41864 -0.358877 0.0155666)
                        (-27.4941 4.41864 -0.358877 0.0155666)
                        (-27.4941 4.41864 -0.358877 0.0155666)
                        (-27.4888 4.41864 -0.358877 0.0155666)
                        (-24.3887 3.3315 -0.221273 0.00973849)
                        (-25.4063 3.7065 -0.268936 0.0117631)
                        (-28.2678 4.58838 -0.379408 0.0163954)
                        (-28.2728 4.58838 -0.379408 0.0163954)
                        (-29.7472 5.18789 -0.450067 0.0191731)
                        (-29.7523 5.18789 -0.450067 0.0191731)
                     );
    }
};

C
{
    fittingTranCoeff
    {
        muCoeffs    (-17.2943 1.69002 -0.14208 0.00643318);
        kappaCoeffs    (-9.43265 1.69002 -0.14208 0.00643318);
        DijCoeffs    (
                        (-19.9804 2.16777 -0.0679648 0.0029913)
                        (-22.388 3.31728 -0.219434 0.0096591)
                        (-22.2362 2.79951 -0.153215 0.00683343)
                        (-23.2112 3.03393 -0.183255 0.00811716)
                        (-22.2491 2.79951 -0.153215 0.00683343)