/*--------------------------------*- C++ -*----------------------------------*\
  =========                 |
  \\      /  F ield         | OpenFOAM: The Open Source CFD Toolbox
   \\    /   O peration     | Website:  https://openfoam.org
    \\  /    A nd           | Version:  6
     \\/     M anipulation  |
\*---------------------------------------------------------------------------*/
FoamFile
{
    version     2.0;
    format      ascii;
    class       dictionary;
    location    "constant";
    object      TranCoeff;
}
// * * * * * * * * * * * * * * * * * * * * * * * * * * * * * * * * * * * * * //

species
(
    H
    H2
    O
    O2
    OH
    H2O
    CO
    HCO
    CO2
    CH3
    CH4
    HO2
    H2O2
    CH2O
    CH3O
    C2H6
    C2H4
    C2H5
    C2H
    C2H2
    C2H3
    CH3OH
    CH2OH
    CH2CO
    HCCO
    CH3CO
    CH2CHO
    CH3CHO
    C3H4-A
    C3H4-P
    C3H6
    C4H6
    NC3H7
    C4H7
    C4H8-1
    PC4H9
    CH3COCH2
    C2H5CHO
    C5H9
    C5H10-1
    C5H11-1
    C2H5O
    CH3O2
    CH3O2H
    C2H3O1-2
    C2H3CO
    C2H3CHO
    C3H5O
    C4H7O
    C3H5-A
    C3H3
    C3H2
    CH2(S)
    NC3H7CHO
    NC3H7CO
    C2H5COCH2
    CH3CHCO
    NC3H7COCH3
    NC3H7COCH2
    NC7H16
    C7H15-1
    C7H15
    C7H15O2
    C7H14OOH
    C7H14OOHO2
    C7H14O
    NC7KET
    N2
);

H
{
    fittingTranCoeff
    {
        muCoeffs    (-22.6578 3.63174 -0.395128 0.0174374);
        kappaCoeffs    (-12.3182 3.63174 -0.395128 0.0174374);
        DijCoeffs    (
                        (-9.21034 -6.44736e-26 9.25847e-27 -4.40439e-28)
                        (-20.6161 2.77531 -0.150119 0.00670131)
                        (-22.5257 3.44613 -0.235979 0.010369)
                        (-23.757 3.79558 -0.28044 0.01226)
                        (-22.5274 3.44613 -0.235979 0.010369)
                        (-28.8579 5.64687 -0.495159 0.0205558)
                        (-23.4836 3.66772 -0.264005 0.0115537)
                        (-28.9569 5.57189 -0.489586 0.020477)
                        (-26.7804 4.84661 -0.410251 0.0176253)
                        (-24.9766 4.2134 -0.333945 0.0145555)
                        (-24.8954 4.18976 -0.330982 0.0144312)
                        (-23.7574 3.79558 -0.28044 0.01226)
                        (-23.7579 3.79558 -0.28044 0.01226)
                        (-28.9575 5.57189 -0.489586 0.020477)
                        (-28.5143 5.43044 -0.475863 0.0200651)
                        (-27.0273 4.86798 -0.412863 0.0177322)
                        (-26.6011 4.81948 -0.407075 0.0175016)
                        (-27.0267 4.86798 -0.412863 0.0177322)
                        (-27.0864 4.96282 -0.424267 0.0181908)
                        (-27.0871 4.96282 -0.424267 0.0181908)
                        (-27.0878 4.96282 -0.424267 0.0181908)
                        (-28.8938 5.55049 -0.487709 0.0204308)
                        (-28.5143 5.43044 -0.475863 0.0200651)
                        (-28.7134 5.45747 -0.478126 0.0201132)
                        (-24.627 4.26101 -0.339797 0.0147961)
                        (-28.7137 5.45747 -0.478126 0.0201132)
                        (-28.7137 5.45747 -0.478126 0.0201132)
                        (-28.714 5.45747 -0.478126 0.0201132)
                        (-27.9738 5.19638 -0.451089 0.0192143)
                        (-27.9738 5.19638 -0.451089 0.0192143)
                        (-27.7336 5.13092 -0.443531 0.018924)
                        (-28.4289 5.30253 -0.463014 0.0196578)
                        (-27.8963 5.11708 -0.442031 0.018871)
                        (-28.3901 5.29659 -0.462358 0.0196338)
                        (-28.3903 5.29659 -0.462358 0.0196338)
                        (-28.5319 5.28769 -0.461375 0.0195981)
                        (-28.9886 5.45632 -0.478004 0.020109)
                        (-28.9284 5.45562 -0.47793 0.0201064)
                        (-28.9418 5.39706 -0.472858 0.0199881)
                        (-28.8725 5.37309 -0.470388 0.0199065)
                        (-29.0801 5.46831 -0.479277 0.020153)
                        (-29.1006 5.53486 -0.486336 0.0203971)
                        (-28.8987 5.55049 -0.487709 0.0204308)
                        (-28.8989 5.55049 -0.487709 0.0204308)
                        (-28.7137 5.45747 -0.478126 0.0201132)
                        (-28.8188 5.47446 -0.479947 0.020177)
                        (-28.9752 5.44409 -0.476822 0.0200739)
                        (-28.8515 5.4229 -0.475299 0.0200573)
                        (-29.4597 5.56925 -0.489351 0.0204711)
                        (-27.8391 5.15688 -0.446375 0.0190261)
                        (-27.9735 5.19638 -0.451089 0.0192143)
                        (-26.3549 4.66002 -0.388102 0.0167483)
                        (-24.9743 4.2134 -0.333945 0.0145555)
                        (-29.2429 5.52304 -0.485153 0.0203597)
                        (-29.2428 5.52304 -0.485153 0.0203597)
                        (-29.2831 5.50069 -0.482791 0.0202784)
                        (-28.819 5.47446 -0.479947 0.020177)
                        (-29.5124 5.54424 -0.48718 0.020419)
                        (-29.4674 5.55973 -0.48849 0.0204483)
                        (-29.539 5.51362 -0.484181 0.0203274)
                        (-29.539 5.51362 -0.484181 0.0203274)
                        (-29.539 5.51362 -0.484181 0.0203274)
                        (-30.0275 5.64296 -0.495336 0.0205905)
                        (-30.0275 5.64296 -0.495336 0.0205905)
                        (-30.3048 5.64725 -0.493432 0.0204103)
                        (-29.8083 5.58576 -0.490616 0.0204916)
                        (-30.1156 5.6482 -0.494782 0.0205176)
                        (-23.4568 3.66173 -0.263264 0.011523)
                     );
    }
};

H2
{
    fittingTranCoeff
    {
        muCoeffs    (-16.1416 1.00298 -0.0500972 0.00232852);
        kappaCoeffs    (-1.81947 -0.67137 0.145801 -0.00407063);
        DijCoeffs    (
                        (-20.6161 2.77531 -0.150119 0.00670131)
                        (-9.21034 -6.44736e-26 9.25847e-27 -4.40439e-28)
                        (-20.1087 2.28781 -0.0847962 0.00377877)
                        (-21.0272 2.54556 -0.119912 0.00537589)
                        (-20.112 2.28781 -0.0847962 0.00377877)
                        (-26.2965 4.60674 -0.381662 0.016488)
                        (-20.8855 2.46923 -0.10967 0.00491725)
                        (-25.1812 4.08261 -0.317423 0.0138562)
                        (-22.9174 3.21419 -0.206412 0.00911038)
                        (-21.6944 2.77117 -0.149596 0.00667932)
                        (-21.6509 2.75985 -0.148157 0.00661834)
                        (-21.0281 2.54556 -0.119912 0.00537589)
                        (-21.029 2.54556 -0.119912 0.00537589)
                        (-25.1823 4.08261 -0.317423 0.0138562)
                        (-24.9154 3.96996 -0.30289 0.013228)
                        (-23.1115 3.22737 -0.208085 0.00918127)
                        (-22.7651 3.19264 -0.203672 0.00899422)
                        (-23.1104 3.22737 -0.208085 0.00918127)
                        (-23.0861 3.28596 -0.215396 0.00948524)
                        (-23.0875 3.28596 -0.215396 0.00948524)
                        (-23.0889 3.28596 -0.215396 0.00948524)
                        (-25.071 4.03625 -0.311504 0.0136029)
                        (-24.9154 3.96996 -0.30289 0.013228)
                        (-24.7724 3.88158 -0.291484 0.0127348)
                        (-21.3762 2.79786 -0.153002 0.00682418)
                        (-24.773 3.88158 -0.291484 0.0127348)
                        (-24.773 3.88158 -0.291484 0.0127348)
                        (-24.7735 3.88158 -0.291484 0.0127348)
                        (-23.8852 3.5183 -0.245223 0.0107648)
                        (-23.8852 3.5183 -0.245223 0.0107648)
                        (-23.6761 3.45552 -0.237188 0.010421)
                        (-24.286 3.6211 -0.258238 0.0113156)
                        (-23.8145 3.43921 -0.23509 0.0103308)
                        (-24.2534 3.6159 -0.257597 0.0112893)
                        (-24.2538 3.6159 -0.257597 0.0112893)
                        (-24.3819 3.60788 -0.256606 0.0112484)
                        (-25.017 3.87991 -0.291268 0.0127254)
                        (-25.4722 4.07129 -0.315984 0.0137949)
                        (-24.8192 3.7486 -0.274378 0.0119983)
                        (-24.7271 3.71086 -0.2695 0.0117875)
                        (-25.1113 3.8968 -0.293442 0.0128192)
                        (-25.2054 3.99796 -0.306528 0.0133863)
                        (-25.0806 4.03625 -0.311504 0.0136029)
                        (-25.081 4.03625 -0.311504 0.0136029)
                        (-24.773 3.88158 -0.291484 0.0127348)
                        (-24.8823 3.90464 -0.294449 0.0128625)
                        (-25.4785 4.04546 -0.312702 0.0136551)
                        (-24.7924 3.79942 -0.28093 0.0122809)
                        (-25.6279 4.07705 -0.316715 0.013826)
                        (-23.7757 3.48432 -0.240857 0.0105773)
                        (-23.8846 3.5183 -0.245223 0.0107648)
                        (-22.6186 3.06749 -0.187587 0.00830375)
                        (-21.6902 2.77117 -0.149596 0.00667932)
                        (-25.6765 4.1128 -0.321269 0.0140204)
                        (-25.6763 4.1128 -0.321269 0.0140204)
                        (-25.7912 4.11855 -0.322002 0.0140517)
                        (-24.8826 3.90464 -0.294449 0.0128625)
                        (-25.8218 4.10081 -0.319741 0.0139552)
                        (-25.6149 4.05802 -0.314301 0.0137234)
                        (-25.5654 3.95976 -0.301569 0.0131706)
                        (-25.5653 3.95976 -0.301569 0.0131706)
                        (-25.5653 3.95976 -0.301569 0.0131706)
                        (-26.3881 4.25888 -0.33954 0.0147857)
                        (-26.3881 4.25888 -0.33954 0.0147857)
                        (-26.7735 4.32795 -0.347892 0.0151226)
                        (-26.0013 4.11974 -0.322153 0.0140582)
                        (-26.5439 4.2987 -0.344284 0.0149739)
                        (-20.8629 2.46383 -0.10894 0.00488439)
                     );
    }
};

O
{
    fittingTranCoeff
    {
        muCoeffs    (-17.3405 1.90275 -0.170195 0.00767127);
        kappaCoeffs    (-9.7655 1.90275 -0.170195 0.00767127);
        DijCoeffs    (
                        (-22.5257 3.44613 -0.235979 0.010369)
                        (-20.1087 2.28781 -0.0847962 0.00377877)
                        (-9.21034 -6.44736e-26 9.25847e-27 -4.40439e-28)
                        (-23.4324 3.14265 -0.197273 0.00872065)
                        (-22.376 2.88806 -0.164634 0.00732455)
                        (-28.5983 5.15624 -0.446304 0.0190235)
                        (-23.2369 3.05525 -0.185999 0.00823493)
                        (-28.5803 5.00511 -0.429209 0.0183834)
                        (-26.2117 4.1255 -0.322885 0.0140893)
                        (-24.177 3.43831 -0.234974 0.0103258)
                        (-24.1223 3.41786 -0.232344 0.0102127)
                        (-23.4375 3.14265 -0.197273 0.00872065)
                        (-23.4424 3.14265 -0.197273 0.00872065)
                        (-28.5863 5.00511 -0.429209 0.0183834)
                        (-27.9729 4.7785 -0.402268 0.0173139)
                        (-26.3761 4.14394 -0.325214 0.0141879)
                        (-25.9713 4.09347 -0.318807 0.0139153)
                        (-26.3701 4.14394 -0.325214 0.0141879)
                        (-26.4015 4.23349 -0.336438 0.014659)
                        (-26.4091 4.23349 -0.336438 0.014659)
                        (-26.4162 4.23349 -0.336438 0.014659)
                        (-28.4925 4.9653 -0.424559 0.0182024)
                        (-27.9729 4.7785 -0.402268 0.0173139)
                        (-28.2513 4.82866 -0.408117 0.0175407)
                        (-24.0536 3.48351 -0.240754 0.0105729)
                        (-28.2545 4.82866 -0.408117 0.0175407)
                        (-28.2545 4.82866 -0.408117 0.0175407)
                        (-28.2576 4.82866 -0.408117 0.0175407)
                        (-27.2965 4.46219 -0.364065 0.0157723)
                        (-27.2965 4.46219 -0.364065 0.0157723)
                        (-27.0939 4.40427 -0.357177 0.0154997)
                        (-27.7947 4.58363 -0.37882 0.016371)
                        (-27.2366 4.38808 -0.355238 0.0154224)
                        (-27.756 4.57566 -0.377836 0.0163304)
                        (-27.758 4.57566 -0.377836 0.0163304)
                        (-27.8796 4.56345 -0.376326 0.016268)
                        (-28.5341 4.82745 -0.407979 0.0175355)
                        (-28.4812 4.82673 -0.407897 0.0175324)
                        (-28.3827 4.71558 -0.39472 0.0170113)
                        (-28.2967 4.68234 -0.390744 0.0168525)
                        (-28.644 4.84147 -0.409623 0.0175997)
                        (-28.6857 4.93402 -0.420818 0.0180527)
                        (-28.5486 4.9653 -0.424559 0.0182024)
                        (-28.5513 4.9653 -0.424559 0.0182024)
                        (-28.2545 4.82866 -0.408117 0.0175407)
                        (-28.3896 4.84982 -0.410644 0.0176414)
                        (-28.5099 4.81142 -0.406152 0.0174666)
                        (-28.3285 4.76027 -0.40009 0.0172269)
                        (-29.1379 5.00076 -0.428714 0.0183647)
                        (-27.1933 4.43184 -0.360434 0.0156276)
                        (-27.2928 4.46219 -0.364065 0.0157723)
                        (-25.6788 3.8945 -0.293147 0.0128065)
                        (-24.1588 3.43831 -0.234974 0.0103258)
                        (-28.8438 4.91479 -0.418495 0.0179588)
                        (-28.8425 4.91479 -0.418495 0.0179588)
                        (-28.858 4.88455 -0.414867 0.0178134)
                        (-28.3916 4.84982 -0.410644 0.0176414)
                        (-29.1448 4.95263 -0.423062 0.0181433)
                        (-29.1404 4.98363 -0.426706 0.0182862)
                        (-29.1284 4.90107 -0.416846 0.0178925)
                        (-29.1277 4.90107 -0.416846 0.0178925)
                        (-29.1277 4.90107 -0.416846 0.0178925)
                        (-29.85 5.13619 -0.444101 0.0189441)
                        (-29.85 5.13619 -0.444101 0.0189441)
                        (-30.2923 5.21689 -0.453334 0.0192949)
                        (-29.5315 5.03393 -0.432494 0.0185075)
                        (-30.0206 5.17782 -0.448864 0.019125)
                        (-23.2133 3.04984 -0.185302 0.00820502)
                     );
    }
};

O2
{
    fittingTranCoeff
    {
        muCoeffs    (-19.3405 2.62765 -0.265133 0.0118167);
        kappaCoeffs    (-13.7781 3.03034 -0.290604 0.0124347);
        DijCoeffs    (
                        (-23.757 3.79558 -0.28044 0.01226)
                        (-21.0272 2.54556 -0.119912 0.00537589)
                        (-23.4324 3.14265 -0.197273 0.00872065)
                        (-9.21034 -6.44736e-26 9.25847e-27 -4.40439e-28)
                        (-23.4526 3.14265 -0.197273 0.00872065)
                        (-30.453 5.60295 -0.492151 0.0205307)
                        (-24.4018 3.33866 -0.222199 0.00977854)
                        (-29.9678 5.33101 -0.465968 0.0197562)
                        (-27.6164 4.47195 -0.36524 0.0158195)
                        (-25.4562 3.78547 -0.279134 0.0122036)
                        (-25.3927 3.75885 -0.275697 0.0120551)
                        (-24.6597 3.43976 -0.23516 0.0103338)
                        (-24.667 3.43976 -0.23516 0.0103338)
                        (-29.9767 5.33101 -0.465968 0.0197562)
                        (-29.6802 5.22212 -0.453904 0.0193152)
                        (-27.7292 4.488 -0.367166 0.0158966)
                        (-27.3584 4.44546 -0.362053 0.0156917)
                        (-27.7204 4.488 -0.367166 0.0158966)
                        (-27.7705 4.58032 -0.378411 0.0163542)
                        (-27.7815 4.58032 -0.378411 0.0163542)
                        (-27.7919 4.58032 -0.378411 0.0163542)
                        (-29.9103 5.30213 -0.46297 0.0196562)
                        (-29.6802 5.22212 -0.453904 0.0193152)
                        (-29.7248 5.18789 -0.450067 0.0191731)
                        (-25.4924 3.84135 -0.286303 0.0125114)
                        (-29.7299 5.18789 -0.450067 0.0191731)
                        (-29.7299 5.18789 -0.450067 0.0191731)
                        (-29.7348 5.18789 -0.450067 0.0191731)
                        (-28.7506 4.82876 -0.40813 0.0175412)
                        (-28.7506 4.82876 -0.40813 0.0175412)
                        (-28.5422 4.7669 -0.400879 0.0172583)
                        (-29.2881 4.95878 -0.423793 0.0181723)
                        (-28.665 4.74892 -0.398729 0.0171724)
                        (-29.2534 4.95147 -0.422922 0.0181377)
                        (-29.2567 4.95147 -0.422922 0.0181377)
                        (-29.3672 4.93976 -0.42151 0.0180807)
                        (-30.0068 5.18622 -0.449867 0.0191651)
                        (-30.2793 5.2921 -0.461862 0.0196158)
                        (-29.8668 5.08261 -0.438158 0.0187272)
                        (-29.7802 5.04951 -0.434259 0.0185738)
                        (-30.1324 5.20194 -0.451713 0.0192375)
                        (-30.1195 5.27619 -0.460066 0.0195485)
                        (-29.997 5.30213 -0.46297 0.0196562)
                        (-30.0013 5.30213 -0.46297 0.0196562)
                        (-29.7299 5.18789 -0.450067 0.0191731)
                        (-29.877 5.20754 -0.452321 0.0192591)
                        (-30.2827 5.2715 -0.45953 0.0195281)
                        (-29.8004 5.12045 -0.442401 0.0188843)
                        (-30.5544 5.32778 -0.465644 0.019746)
                        (-28.6516 4.79964 -0.404785 0.0174139)
                        (-28.7449 4.82876 -0.40813 0.0175412)
                        (-27.1662 4.29165 -0.343431 0.0149395)
                        (-25.4323 3.78547 -0.279134 0.0122036)
                        (-30.5138 5.32836 -0.465704 0.0197479)
                        (-30.5117 5.32836 -0.465704 0.0197479)
                        (-30.5968 5.32587 -0.465448 0.0197395)
                        (-29.8803 5.20754 -0.452321 0.0192591)
                        (-30.707 5.32926 -0.465796 0.0197509)
                        (-30.5756 5.31576 -0.464405 0.0197051)
                        (-30.5839 5.24707 -0.456718 0.0194203)
                        (-30.5826 5.24707 -0.456718 0.0194203)
                        (-30.5826 5.24707 -0.456718 0.0194203)
                        (-31.2331 5.43496 -0.476169 0.0200671)
                        (-31.2331 5.43496 -0.476169 0.0200671)
                        (-31.6107 5.48884 -0.481508 0.0202327)
                        (-30.9405 5.35396 -0.468326 0.0198337)
                        (-31.3747 5.46118 -0.478519 0.0201268)
                        (-24.3747 3.3315 -0.221273 0.00973849)
                     );
    }
};

OH
{
    fittingTranCoeff
    {
        muCoeffs    (-17.3099 1.90275 -0.170195 0.00767127);
        kappaCoeffs    (-0.937738 -1.77645 0.335724 -0.0145124);
        DijCoeffs    (
                        (-22.5274 3.44613 -0.235979 0.010369)
                        (-20.112 2.28781 -0.0847962 0.00377877)
                        (-22.376 2.88806 -0.164634 0.00732455)
                        (-23.4526 3.14265 -0.197273 0.00872065)
                        (-9.21034 -6.44736e-26 9.25847e-27 -4.40439e-28)
                        (-28.6142 5.15624 -0.446304 0.0190235)
                        (-23.2561 3.05525 -0.185999 0.00823493)
                        (-28.5998 5.00511 -0.429209 0.0183834)
                        (-26.2339 4.1255 -0.322885 0.0140893)
                        (-24.1916 3.43831 -0.234974 0.0103258)
                        (-24.1374 3.41786 -0.232344 0.0102127)
                        (-23.4579 3.14265 -0.197273 0.00872065)
                        (-23.463 3.14265 -0.197273 0.00872065)
                        (-28.606 5.00511 -0.429209 0.0183834)
                        (-27.9928 4.7785 -0.402268 0.0173139)
                        (-26.3958 4.14394 -0.325214 0.0141879)
                        (-25.9905 4.09347 -0.318807 0.0139153)
                        (-26.3896 4.14394 -0.325214 0.0141879)
                        (-26.4199 4.23349 -0.336438 0.014659)
                        (-26.4278 4.23349 -0.336438 0.014659)
                        (-26.4352 4.23349 -0.336438 0.014659)
                        (-28.5127 4.9653 -0.424559 0.0182024)
                        (-27.9928 4.7785 -0.402268 0.0173139)
                        (-28.2732 4.82866 -0.408117 0.0175407)
                        (-24.0754 3.48351 -0.240754 0.0105729)
                        (-28.2766 4.82866 -0.408117 0.0175407)
                        (-28.2766 4.82866 -0.408117 0.0175407)
                        (-28.2798 4.82866 -0.408117 0.0175407)
                        (-27.3182 4.46219 -0.364065 0.0157723)
                        (-27.3182 4.46219 -0.364065 0.0157723)
                        (-27.1159 4.40427 -0.357177 0.0154997)
                        (-27.8182 4.58363 -0.37882 0.016371)
                        (-27.2587 4.38808 -0.355238 0.0154224)
                        (-27.7795 4.57566 -0.377836 0.0163304)
                        (-27.7816 4.57566 -0.377836 0.0163304)
                        (-27.9033 4.56345 -0.376326 0.016268)
                        (-28.5578 4.82745 -0.407979 0.0175355)
                        (-28.5049 4.82673 -0.407897 0.0175324)
                        (-28.4074 4.71558 -0.39472 0.0170113)
                        (-28.3215 4.68234 -0.390744 0.0168525)
                        (-28.6688 4.84147 -0.409623 0.0175997)
                        (-28.7081 4.93402 -0.420818 0.0180527)
                        (-28.5712 4.9653 -0.424559 0.0182024)
                        (-28.574 4.9653 -0.424559 0.0182024)
                        (-28.2766 4.82866 -0.408117 0.0175407)
                        (-28.4131 4.84982 -0.410644 0.0176414)
                        (-28.5335 4.81142 -0.406152 0.0174666)
                        (-28.3522 4.76027 -0.40009 0.0172269)
                        (-29.1627 5.00076 -0.428714 0.0183647)
                        (-27.2151 4.43184 -0.360434 0.0156276)
                        (-27.3143 4.46219 -0.364065 0.0157723)
                        (-25.7001 3.8945 -0.293147 0.0128065)
                        (-24.1729 3.43831 -0.234974 0.0103258)
                        (-28.8686 4.91479 -0.418495 0.0179588)
                        (-28.8673 4.91479 -0.418495 0.0179588)
                        (-28.8828 4.88455 -0.414867 0.0178134)
                        (-28.4152 4.84982 -0.410644 0.0176414)
                        (-29.1704 4.95263 -0.423062 0.0181433)
                        (-29.166 4.98363 -0.426706 0.0182862)
                        (-29.1546 4.90107 -0.416846 0.0178925)
                        (-29.1539 4.90107 -0.416846 0.0178925)
                        (-29.1539 4.90107 -0.416846 0.0178925)
                        (-29.8772 5.13619 -0.444101 0.0189441)
                        (-29.8772 5.13619 -0.444101 0.0189441)
                        (-30.32 5.21689 -0.453334 0.0192949)
                        (-29.5581 5.03393 -0.432494 0.0185075)
                        (-30.0481 5.17782 -0.448864 0.019125)
                        (-23.2325 3.04984 -0.185302 0.00820502)
                     );
    }
};

H2O
{
    fittingTranCoeff
    {
        muCoeffs    (-12.9653 -1.33484 0.41556 -0.0238812);
        kappaCoeffs    (12.6345 -9.33626 1.58777 -0.0790468);
        DijCoeffs    (
                        (-28.8579 5.64687 -0.495159 0.0205558)
                        (-26.2965 4.60674 -0.381662 0.016488)
                        (-28.5983 5.15624 -0.446304 0.0190235)
                        (-30.453 5.60295 -0.492151 0.0205307)
                        (-28.6142 5.15624 -0.446304 0.0190235)
                        (-9.21034 -6.44736e-26 9.25847e-27 -4.40439e-28)
                        (-30.3209 5.55695 -0.488249 0.0204425)
                        (-27.215 3.68769 -0.172264 0.0038615)
                        (-30.1572 5.09926 -0.39041 0.0146768)
                        (-30.5621 5.64553 -0.49522 0.0205676)
                        (-30.6998 5.62052 -0.483426 0.0197159)
                        (-29.8961 5.43852 -0.476428 0.02007)
                        (-29.9013 5.43852 -0.476428 0.02007)
                        (-27.2215 3.68769 -0.172264 0.0038615)
                        (-25.9944 3.08797 -0.0832684 -0.000357479)
                        (-30.7047 5.35299 -0.432773 0.0168858)
                        (-30.5061 5.40124 -0.44109 0.0173281)
                        (-30.6982 5.35299 -0.432773 0.0168858)
                        (-30.3419 5.26603 -0.417746 0.0160866)
                        (-30.35 5.26603 -0.417746 0.0160866)
                        (-30.3577 5.26603 -0.417746 0.0160866)
                        (-27.4832 3.80118 -0.189267 0.00468514)
                        (-25.9944 3.08797 -0.0832684 -0.000357479)
                        (-28.2586 4.1049 -0.235392 0.00694178)
                        (-30.363 5.64857 -0.494147 0.020463)
                        (-28.2621 4.1049 -0.235392 0.00694178)
                        (-28.2621 4.1049 -0.235392 0.00694178)
                        (-28.2655 4.1049 -0.235392 0.00694178)
                        (-29.8892 4.8799 -0.355363 0.0128976)
                        (-29.8892 4.8799 -0.355363 0.0128976)
                        (-30.0741 4.99642 -0.373886 0.0138349)
                        (-29.6559 4.67251 -0.322535 0.0112433)
                        (-30.3209 5.02528 -0.378515 0.0140704)
                        (-29.6646 4.68566 -0.324595 0.0113464)
                        (-29.6669 4.68566 -0.324595 0.0113464)
                        (-29.8637 4.70541 -0.327691 0.0115013)
                        (-28.5618 4.10882 -0.235985 0.00697069)
                        (-26.0285 2.92304 -0.0587019 -0.00153858)
                        (-29.3225 4.39468 -0.279546 0.00911017)
                        (-29.3196 4.40354 -0.282247 0.00929055)
                        (-28.5587 4.07209 -0.230397 0.00669669)
                        (-27.9341 3.87775 -0.200814 0.00524718)
                        (-27.5441 3.80118 -0.189267 0.00468514)
                        (-27.547 3.80118 -0.189267 0.00468514)
                        (-28.2621 4.1049 -0.235392 0.00694178)
                        (-28.2395 4.05551 -0.227869 0.00657269)
                        (-26.3224 3.03225 -0.0754389 -0.000721122)
                        (-28.9315 4.29354 -0.264038 0.00834548)
                        (-27.8338 3.70109 -0.17427 0.00395849)
                        (-29.9859 4.93954 -0.364848 0.0133777)
                        (-29.8852 4.8799 -0.355363 0.0128976)
                        (-30.9331 5.53329 -0.464948 0.0186294)
                        (-30.5429 5.64553 -0.49522 0.0205676)
                        (-26.2307 2.98902 -0.0707351 -0.000902)
                        (-26.2293 2.98902 -0.0707351 -0.000902)
                        (-26.2582 2.94382 -0.063162 -0.00128745)
                        (-28.2417 4.05551 -0.227869 0.00657269)
                        (-26.8654 3.21161 -0.105153 0.000778109)
                        (-27.9895 3.7493 -0.181487 0.00430789)
                        (-28.6309 3.94841 -0.211549 0.00577228)
                        (-28.6301 3.94841 -0.211549 0.00577228)
                        (-28.6301 3.94841 -0.211549 0.00577228)
                        (-26.6935 3.04158 -0.0788626 -0.000534677)
                        (-26.6935 3.04158 -0.0788626 -0.000534677)
                        (-26.4409 2.82468 -0.0464976 -0.00210083)
                        (-27.92 3.59803 -0.158853 0.0032131)
                        (-26.3781 2.87452 -0.0544395 -0.00169495)
                        (-30.2612 5.5433 -0.487098 0.020417)
                     );
    }
};

CO
{
    fittingTranCoeff
    {
        muCoeffs    (-18.8451 2.37019 -0.231469 0.0103486);
        kappaCoeffs    (0.247809 -3.09925 0.593328 -0.0298757);
        DijCoeffs    (
                        (-23.4836 3.66772 -0.264005 0.0115537)
                        (-20.8855 2.46923 -0.10967 0.00491725)
                        (-23.2369 3.05525 -0.185999 0.00823493)
                        (-24.4018 3.33866 -0.222199 0.00977854)
                        (-23.2561 3.05525 -0.185999 0.00823493)
                        (-30.3209 5.55695 -0.488249 0.0204425)
                        (-9.21034 -6.44736e-26 9.25847e-27 -4.40439e-28)
                        (-29.6931 5.23433 -0.455256 0.0193645)
                        (-27.3422 4.37152 -0.353235 0.0153415)
                        (-25.1534 3.66056 -0.263118 0.0115169)
                        (-25.1079 3.6418 -0.260786 0.0114202)
                        (-24.409 3.33866 -0.222199 0.00977854)
                        (-24.4158 3.33866 -0.222199 0.00977854)
                        (-29.7014 5.23433 -0.455256 0.0193645)
                        (-29.4111 5.12584 -0.442983 0.0189047)
                        (-27.4595 4.38846 -0.355284 0.0154243)
                        (-27.0871 4.34215 -0.349634 0.0151941)
                        (-27.4513 4.38846 -0.355284 0.0154243)
                        (-27.4662 4.46404 -0.364287 0.0157813)
                        (-27.4765 4.46404 -0.364287 0.0157813)
                        (-27.4863 4.46404 -0.364287 0.0157813)
                        (-29.622 5.20042 -0.451546 0.0192315)
                        (-29.4111 5.12584 -0.442983 0.0189047)
                        (-29.4336 5.08683 -0.438641 0.0187455)